
**** 11/09/22 11:30:19 ******* PSpice 17.4.0 (Nov 2018) ******* ID# 0 ********

 ****cse4030Lab11****


 ****     CIRCUIT DESCRIPTION


******************************************************************************




V1 1 0 AC 10
R1 1 2 10k
C1 2 0 20mF

.AC DEC  10  0.01 100 
.PLOT AC  V (1)
.PROBE 
.END

**** 11/09/22 11:30:19 ******* PSpice 17.4.0 (Nov 2018) ******* ID# 0 ********

 ****cse4030Lab11****


 ****     SMALL SIGNAL BIAS SOLUTION       TEMPERATURE =   27.000 DEG C


******************************************************************************



 NODE   VOLTAGE     NODE   VOLTAGE     NODE   VOLTAGE     NODE   VOLTAGE


(    1)    0.0000  (    2)    0.0000  




    VOLTAGE SOURCE CURRENTS
    NAME         CURRENT

    V1           0.000E+00

    TOTAL POWER DISSIPATION   0.00E+00  WATTS


**** 11/09/22 11:30:19 ******* PSpice 17.4.0 (Nov 2018) ******* ID# 0 ********

 ****cse4030Lab11****


 ****     AC ANALYSIS                      TEMPERATURE =   27.000 DEG C


******************************************************************************



  FREQ        V(1)        


(*)----------    1.0000E+01   1.0000E+02   1.0000E+03   1.0000E+04   1.0000E+05
                       _ _ _ _ _ _ _ _ _ _ _ _ _ _ _ _ _ _ _ _ _ _ _ _ _ _ _
  1.000E-02  1.000E+01 *            .            .            .            .
  1.259E-02  1.000E+01 *            .            .            .            .
  1.585E-02  1.000E+01 *            .            .            .            .
  1.995E-02  1.000E+01 *            .            .            .            .
  2.512E-02  1.000E+01 *            .            .            .            .
  3.162E-02  1.000E+01 *            .            .            .            .
  3.981E-02  1.000E+01 *            .            .            .            .
  5.012E-02  1.000E+01 *            .            .            .            .
  6.310E-02  1.000E+01 *            .            .            .            .
  7.943E-02  1.000E+01 *            .            .            .            .
  1.000E-01  1.000E+01 *            .            .            .            .
  1.259E-01  1.000E+01 *            .            .            .            .
  1.585E-01  1.000E+01 *            .            .            .            .
  1.995E-01  1.000E+01 *            .            .            .            .
  2.512E-01  1.000E+01 *            .            .            .            .
  3.162E-01  1.000E+01 *            .            .            .            .
  3.981E-01  1.000E+01 *            .            .            .            .
  5.012E-01  1.000E+01 *            .            .            .            .
  6.310E-01  1.000E+01 *            .            .            .            .
  7.943E-01  1.000E+01 *            .            .            .            .
  1.000E+00  1.000E+01 *            .            .            .            .
  1.259E+00  1.000E+01 *            .            .            .            .
  1.585E+00  1.000E+01 *            .            .            .            .
  1.995E+00  1.000E+01 *            .            .            .            .
  2.512E+00  1.000E+01 *            .            .            .            .
  3.162E+00  1.000E+01 *            .            .            .            .
  3.981E+00  1.000E+01 *            .            .            .            .
  5.012E+00  1.000E+01 *            .            .            .            .
  6.310E+00  1.000E+01 *            .            .            .            .
  7.943E+00  1.000E+01 *            .            .            .            .
  1.000E+01  1.000E+01 *            .            .            .            .
  1.259E+01  1.000E+01 *            .            .            .            .
  1.585E+01  1.000E+01 *            .            .            .            .
  1.995E+01  1.000E+01 *            .            .            .            .
  2.512E+01  1.000E+01 *            .            .            .            .
  3.162E+01  1.000E+01 *            .            .            .            .
  3.981E+01  1.000E+01 *            .            .            .            .
  5.012E+01  1.000E+01 *            .            .            .            .
  6.310E+01  1.000E+01 *            .            .            .            .
  7.943E+01  1.000E+01 *            .            .            .            .
  1.000E+02  1.000E+01 *            .            .            .            .
                       - - - - - - - - - - - - - - - - - - - - - - - - - - - 




          JOB CONCLUDED

**** 11/09/22 11:30:19 ******* PSpice 17.4.0 (Nov 2018) ******* ID# 0 ********

 ****cse4030Lab11****


 ****     JOB STATISTICS SUMMARY


******************************************************************************



  Total job time (using Solver 1)   =         .02
