
**** 10/31/22 10:52:54 ******* PSpice 17.4.0 (Nov 2018) ******* ID# 0 ********

 ****CSE4030Lab10****


 ****     CIRCUIT DESCRIPTION


******************************************************************************




Vs 1 0 SIN(0 14.14 60 0 0 60) 
R1 1 2 2
L  2 0 5.3mH 

.Tran 2ms 100ms
.PLOT Tran V(1)
.PROBE
.END

**** 10/31/22 10:52:54 ******* PSpice 17.4.0 (Nov 2018) ******* ID# 0 ********

 ****CSE4030Lab10****


 ****     INITIAL TRANSIENT SOLUTION       TEMPERATURE =   27.000 DEG C


******************************************************************************



 NODE   VOLTAGE     NODE   VOLTAGE     NODE   VOLTAGE     NODE   VOLTAGE


(    1)   12.2460  (    2)    0.0000  




    VOLTAGE SOURCE CURRENTS
    NAME         CURRENT

    Vs          -6.123E+00

    TOTAL POWER DISSIPATION   7.50E+01  WATTS


**** 10/31/22 10:52:54 ******* PSpice 17.4.0 (Nov 2018) ******* ID# 0 ********

 ****CSE4030Lab10****


 ****     TRANSIENT ANALYSIS               TEMPERATURE =   27.000 DEG C


******************************************************************************



  TIME        V(1)        
(*)----------   -2.0000E+01  -1.0000E+01   0.0000E+00   1.0000E+01   2.0000E+01
                       _ _ _ _ _ _ _ _ _ _ _ _ _ _ _ _ _ _ _ _ _ _ _ _ _ _ _
  0.000E+00  1.225E+01 .            .            .            .  *         .
  2.000E-03  1.337E+01 .            .            .            .   *        .
  4.000E-03  7.311E+00 .            .            .         *  .            .
  6.000E-03 -2.312E+00 .            .         *  .            .            .
  8.000E-03 -1.068E+01 .           *.            .            .            .
  1.000E-02 -1.326E+01 .        *   .            .            .            .
  1.200E-02 -8.653E+00 .            . *          .            .            .
  1.400E-02  6.468E-01 .            .            .*           .            .
  1.600E-02  9.596E+00 .            .            .           *.            .
  1.800E-02  1.334E+01 .            .            .            .   *        .
  2.000E-02  9.858E+00 .            .            .            *            .
  2.200E-02  1.029E+00 .            .            .*           .            .
  2.400E-02 -8.358E+00 .            . *          .            .            .
  2.600E-02 -1.321E+01 .        *   .            .            .            .
  2.800E-02 -1.091E+01 .           *.            .            .            .
  3.000E-02 -2.688E+00 .            .         *  .            .            .
  3.200E-02  6.988E+00 .            .            .        *   .            .
  3.400E-02  1.288E+01 .            .            .            .   *        .
  3.600E-02  1.179E+01 .            .            .            . *          .
  3.800E-02  4.305E+00 .            .            .     *      .            .
  4.000E-02 -5.508E+00 .            .     *      .            .            .
  4.200E-02 -1.234E+01 .         *  .            .            .            .
  4.400E-02 -1.248E+01 .         *  .            .            .            .
  4.600E-02 -5.855E+00 .            .    *       .            .            .
  4.800E-02  3.941E+00 .            .            .    *       .            .
  5.000E-02  1.160E+01 .            .            .            . *          .
  5.200E-02  1.306E+01 .            .            .            .   *        .
  5.400E-02  7.339E+00 .            .            .         *  .            .
  5.600E-02 -2.327E+00 .            .         *  .            .            .
  5.800E-02 -1.073E+01 .           *.            .            .            .
  6.000E-02 -1.340E+01 .        *   .            .            .            .
  6.200E-02 -8.724E+00 .            . *          .            .            .
  6.400E-02  6.589E-01 .            .            .*           .            .
  6.600E-02  9.685E+00 .            .            .            *            .
  6.800E-02  1.346E+01 .            .            .            .    *       .
  7.000E-02  9.941E+00 .            .            .            *            .
  7.200E-02  1.032E+00 .            .            .*           .            .
  7.400E-02 -8.437E+00 .            . *          .            .            .
  7.600E-02 -1.333E+01 .        *   .            .            .            .
  7.800E-02 -1.100E+01 .           *.            .            .            .
  8.000E-02 -2.706E+00 .            .        *   .            .            .
  8.200E-02  7.055E+00 .            .            .        *   .            .
  8.400E-02  1.299E+01 .            .            .            .   *        .
  8.600E-02  1.189E+01 .            .            .            . *          .
  8.800E-02  4.337E+00 .            .            .     *      .            .
  9.000E-02 -5.562E+00 .            .     *      .            .            .
  9.200E-02 -1.245E+01 .         *  .            .            .            .
  9.400E-02 -1.258E+01 .         *  .            .            .            .
  9.600E-02 -5.900E+00 .            .    *       .            .            .
  9.800E-02  3.982E+00 .            .            .    *       .            .
  1.000E-01  1.225E+01 .            .            .            .  *         .
                       - - - - - - - - - - - - - - - - - - - - - - - - - - - 




          JOB CONCLUDED

**** 10/31/22 10:52:54 ******* PSpice 17.4.0 (Nov 2018) ******* ID# 0 ********

 ****CSE4030Lab10****


 ****     JOB STATISTICS SUMMARY


******************************************************************************



  Total job time (using Solver 1)   =        0.00
