
**** 11/23/22 11:15:42 ******* PSpice 17.4.0 (Nov 2018) ******* ID# 0 ********

 ****CSE4030Lab13_pt2****


 ****     CIRCUIT DESCRIPTION


******************************************************************************



Vs 1 0 PWL(0 0 0.1m 1)

R1 1 2 1
R2 2 3 1
R3 2 4 2

C1 2 0 1
C2 4 3 1

Ri 3 0 1MEG
R0 5 4 10
E1 5 0 3 0 1MEG

.TRAN 1s 30s
.PLOT TRAN V(1)
.PROBE 
.END

**** 11/23/22 11:15:42 ******* PSpice 17.4.0 (Nov 2018) ******* ID# 0 ********

 ****CSE4030Lab13_pt2****


 ****     INITIAL TRANSIENT SOLUTION       TEMPERATURE =   27.000 DEG C


******************************************************************************



 NODE   VOLTAGE     NODE   VOLTAGE     NODE   VOLTAGE     NODE   VOLTAGE


(    1)    0.0000  (    2)    0.0000  (    3)    0.0000  (    4)    0.0000      

(    5)    0.0000  




    VOLTAGE SOURCE CURRENTS
    NAME         CURRENT

    Vs           0.000E+00

    TOTAL POWER DISSIPATION   0.00E+00  WATTS


**** 11/23/22 11:15:42 ******* PSpice 17.4.0 (Nov 2018) ******* ID# 0 ********

 ****CSE4030Lab13_pt2****


 ****     TRANSIENT ANALYSIS               TEMPERATURE =   27.000 DEG C


******************************************************************************



  TIME        V(1)        
(*)----------   -5.0000E-01   0.0000E+00   5.0000E-01   1.0000E+00   1.5000E+00
                       _ _ _ _ _ _ _ _ _ _ _ _ _ _ _ _ _ _ _ _ _ _ _ _ _ _ _
  0.000E+00  0.000E+00 .            *            .            .            .
  1.000E+00  1.000E+00 .            .            .            *            .
  2.000E+00  1.000E+00 .            .            .            *            .
  3.000E+00  1.000E+00 .            .            .            *            .
  4.000E+00  1.000E+00 .            .            .            *            .
  5.000E+00  1.000E+00 .            .            .            *            .
  6.000E+00  1.000E+00 .            .            .            *            .
  7.000E+00  1.000E+00 .            .            .            *            .
  8.000E+00  1.000E+00 .            .            .            *            .
  9.000E+00  1.000E+00 .            .            .            *            .
  1.000E+01  1.000E+00 .            .            .            *            .
  1.100E+01  1.000E+00 .            .            .            *            .
  1.200E+01  1.000E+00 .            .            .            *            .
  1.300E+01  1.000E+00 .            .            .            *            .
  1.400E+01  1.000E+00 .            .            .            *            .
  1.500E+01  1.000E+00 .            .            .            *            .
  1.600E+01  1.000E+00 .            .            .            *            .
  1.700E+01  1.000E+00 .            .            .            *            .
  1.800E+01  1.000E+00 .            .            .            *            .
  1.900E+01  1.000E+00 .            .            .            *            .
  2.000E+01  1.000E+00 .            .            .            *            .
  2.100E+01  1.000E+00 .            .            .            *            .
  2.200E+01  1.000E+00 .            .            .            *            .
  2.300E+01  1.000E+00 .            .            .            *            .
  2.400E+01  1.000E+00 .            .            .            *            .
  2.500E+01  1.000E+00 .            .            .            *            .
  2.600E+01  1.000E+00 .            .            .            *            .
  2.700E+01  1.000E+00 .            .            .            *            .
  2.800E+01  1.000E+00 .            .            .            *            .
  2.900E+01  1.000E+00 .            .            .            *            .
  3.000E+01  1.000E+00 .            .            .            *            .
                       - - - - - - - - - - - - - - - - - - - - - - - - - - - 




          JOB CONCLUDED

**** 11/23/22 11:15:42 ******* PSpice 17.4.0 (Nov 2018) ******* ID# 0 ********

 ****CSE4030Lab13_pt2****


 ****     JOB STATISTICS SUMMARY


******************************************************************************



  License check-out time            =         .53
  Total job time (using Solver 1)   =        0.00
