
**** 11/14/22 10:57:10 ******* PSpice 17.4.0 (Nov 2018) ******* ID# 0 ********

 ****CSE4030Lab12****


 ****     CIRCUIT DESCRIPTION


******************************************************************************




Vs  1 0 PWL(0 0 0.1m 10) 
R1 1 2 1k
C1 2 0 10u

.TRAN 1ms 100ms
.PLOT TRAN V(1)
.PROBE 
.END

**** 11/14/22 10:57:10 ******* PSpice 17.4.0 (Nov 2018) ******* ID# 0 ********

 ****CSE4030Lab12****


 ****     INITIAL TRANSIENT SOLUTION       TEMPERATURE =   27.000 DEG C


******************************************************************************



 NODE   VOLTAGE     NODE   VOLTAGE     NODE   VOLTAGE     NODE   VOLTAGE


(    1)    0.0000  (    2)    0.0000  




    VOLTAGE SOURCE CURRENTS
    NAME         CURRENT

    Vs           0.000E+00

    TOTAL POWER DISSIPATION   0.00E+00  WATTS


**** 11/14/22 10:57:10 ******* PSpice 17.4.0 (Nov 2018) ******* ID# 0 ********

 ****CSE4030Lab12****


 ****     TRANSIENT ANALYSIS               TEMPERATURE =   27.000 DEG C


******************************************************************************



  TIME        V(1)        
(*)----------   -5.0000E+00   0.0000E+00   5.0000E+00   1.0000E+01   1.5000E+01
                       _ _ _ _ _ _ _ _ _ _ _ _ _ _ _ _ _ _ _ _ _ _ _ _ _ _ _
  0.000E+00  0.000E+00 .            *            .            .            .
  1.000E-03  1.000E+01 .            .            .            *            .
  2.000E-03  1.000E+01 .            .            .            *            .
  3.000E-03  1.000E+01 .            .            .            *            .
  4.000E-03  1.000E+01 .            .            .            *            .
  5.000E-03  1.000E+01 .            .            .            *            .
  6.000E-03  1.000E+01 .            .            .            *            .
  7.000E-03  1.000E+01 .            .            .            *            .
  8.000E-03  1.000E+01 .            .            .            *            .
  9.000E-03  1.000E+01 .            .            .            *            .
  1.000E-02  1.000E+01 .            .            .            *            .
  1.100E-02  1.000E+01 .            .            .            *            .
  1.200E-02  1.000E+01 .            .            .            *            .
  1.300E-02  1.000E+01 .            .            .            *            .
  1.400E-02  1.000E+01 .            .            .            *            .
  1.500E-02  1.000E+01 .            .            .            *            .
  1.600E-02  1.000E+01 .            .            .            *            .
  1.700E-02  1.000E+01 .            .            .            *            .
  1.800E-02  1.000E+01 .            .            .            *            .
  1.900E-02  1.000E+01 .            .            .            *            .
  2.000E-02  1.000E+01 .            .            .            *            .
  2.100E-02  1.000E+01 .            .            .            *            .
  2.200E-02  1.000E+01 .            .            .            *            .
  2.300E-02  1.000E+01 .            .            .            *            .
  2.400E-02  1.000E+01 .            .            .            *            .
  2.500E-02  1.000E+01 .            .            .            *            .
  2.600E-02  1.000E+01 .            .            .            *            .
  2.700E-02  1.000E+01 .            .            .            *            .
  2.800E-02  1.000E+01 .            .            .            *            .
  2.900E-02  1.000E+01 .            .            .            *            .
  3.000E-02  1.000E+01 .            .            .            *            .
  3.100E-02  1.000E+01 .            .            .            *            .
  3.200E-02  1.000E+01 .            .            .            *            .
  3.300E-02  1.000E+01 .            .            .            *            .
  3.400E-02  1.000E+01 .            .            .            *            .
  3.500E-02  1.000E+01 .            .            .            *            .
  3.600E-02  1.000E+01 .            .            .            *            .
  3.700E-02  1.000E+01 .            .            .            *            .
  3.800E-02  1.000E+01 .            .            .            *            .
  3.900E-02  1.000E+01 .            .            .            *            .
  4.000E-02  1.000E+01 .            .            .            *            .
  4.100E-02  1.000E+01 .            .            .            *            .
  4.200E-02  1.000E+01 .            .            .            *            .
  4.300E-02  1.000E+01 .            .            .            *            .
  4.400E-02  1.000E+01 .            .            .            *            .
  4.500E-02  1.000E+01 .            .            .            *            .
  4.600E-02  1.000E+01 .            .            .            *            .
  4.700E-02  1.000E+01 .            .            .            *            .
  4.800E-02  1.000E+01 .            .            .            *            .
  4.900E-02  1.000E+01 .            .            .            *            .
  5.000E-02  1.000E+01 .            .            .            *            .
  5.100E-02  1.000E+01 .            .            .            *            .
  5.200E-02  1.000E+01 .            .            .            *            .
  5.300E-02  1.000E+01 .            .            .            *            .
  5.400E-02  1.000E+01 .            .            .            *            .
  5.500E-02  1.000E+01 .            .            .            *            .
  5.600E-02  1.000E+01 .            .            .            *            .
  5.700E-02  1.000E+01 .            .            .            *            .
  5.800E-02  1.000E+01 .            .            .            *            .
  5.900E-02  1.000E+01 .            .            .            *            .
  6.000E-02  1.000E+01 .            .            .            *            .
  6.100E-02  1.000E+01 .            .            .            *            .
  6.200E-02  1.000E+01 .            .            .            *            .
  6.300E-02  1.000E+01 .            .            .            *            .
  6.400E-02  1.000E+01 .            .            .            *            .
  6.500E-02  1.000E+01 .            .            .            *            .
  6.600E-02  1.000E+01 .            .            .            *            .
  6.700E-02  1.000E+01 .            .            .            *            .
  6.800E-02  1.000E+01 .            .            .            *            .
  6.900E-02  1.000E+01 .            .            .            *            .
  7.000E-02  1.000E+01 .            .            .            *            .
  7.100E-02  1.000E+01 .            .            .            *            .
  7.200E-02  1.000E+01 .            .            .            *            .
  7.300E-02  1.000E+01 .            .            .            *            .
  7.400E-02  1.000E+01 .            .            .            *            .
  7.500E-02  1.000E+01 .            .            .            *            .
  7.600E-02  1.000E+01 .            .            .            *            .
  7.700E-02  1.000E+01 .            .            .            *            .
  7.800E-02  1.000E+01 .            .            .            *            .
  7.900E-02  1.000E+01 .            .            .            *            .
  8.000E-02  1.000E+01 .            .            .            *            .
  8.100E-02  1.000E+01 .            .            .            *            .
  8.200E-02  1.000E+01 .            .            .            *            .
  8.300E-02  1.000E+01 .            .            .            *            .
  8.400E-02  1.000E+01 .            .            .            *            .
  8.500E-02  1.000E+01 .            .            .            *            .
  8.600E-02  1.000E+01 .            .            .            *            .
  8.700E-02  1.000E+01 .            .            .            *            .
  8.800E-02  1.000E+01 .            .            .            *            .
  8.900E-02  1.000E+01 .            .            .            *            .
  9.000E-02  1.000E+01 .            .            .            *            .
  9.100E-02  1.000E+01 .            .            .            *            .
  9.200E-02  1.000E+01 .            .            .            *            .
  9.300E-02  1.000E+01 .            .            .            *            .
  9.400E-02  1.000E+01 .            .            .            *            .
  9.500E-02  1.000E+01 .            .            .            *            .
  9.600E-02  1.000E+01 .            .            .            *            .
  9.700E-02  1.000E+01 .            .            .            *            .
  9.800E-02  1.000E+01 .            .            .            *            .
  9.900E-02  1.000E+01 .            .            .            *            .
  1.000E-01  1.000E+01 .            .            .            *            .
                       - - - - - - - - - - - - - - - - - - - - - - - - - - - 




          JOB CONCLUDED

**** 11/14/22 10:57:10 ******* PSpice 17.4.0 (Nov 2018) ******* ID# 0 ********

 ****CSE4030Lab12****


 ****     JOB STATISTICS SUMMARY


******************************************************************************



  License check-out time            =         .69
  Total job time (using Solver 1)   =         .05
