
**** 11/09/22 11:33:19 ******* PSpice 17.4.0 (Nov 2018) ******* ID# 0 ********

 ****CSE4030Lab11_pt2****


 ****     CIRCUIT DESCRIPTION


******************************************************************************




Vs 1 0 AC 0.01
E1 3 0 2 0 1000
C1 1 2 3.18nF
C2 4 0 79.58nF
R1 2 0 1000k
R2 3 4 100

.AC DEC 10 0.01 1000k 
.PLOT AC V(1)
.PROBE
.END 

**** 11/09/22 11:33:19 ******* PSpice 17.4.0 (Nov 2018) ******* ID# 0 ********

 ****CSE4030Lab11_pt2****


 ****     SMALL SIGNAL BIAS SOLUTION       TEMPERATURE =   27.000 DEG C


******************************************************************************



 NODE   VOLTAGE     NODE   VOLTAGE     NODE   VOLTAGE     NODE   VOLTAGE


(    1)    0.0000  (    2)    0.0000  (    3)    0.0000  (    4)    0.0000  




    VOLTAGE SOURCE CURRENTS
    NAME         CURRENT

    Vs           0.000E+00

    TOTAL POWER DISSIPATION   0.00E+00  WATTS


**** 11/09/22 11:33:19 ******* PSpice 17.4.0 (Nov 2018) ******* ID# 0 ********

 ****CSE4030Lab11_pt2****


 ****     AC ANALYSIS                      TEMPERATURE =   27.000 DEG C


******************************************************************************



  FREQ        V(1)        


(*)----------    1.0000E-03   1.0000E-02   1.0000E-01   1.0000E+00   1.0000E+01
                       _ _ _ _ _ _ _ _ _ _ _ _ _ _ _ _ _ _ _ _ _ _ _ _ _ _ _
  1.000E-02  1.000E-02 .            *            .            .            .
  1.259E-02  1.000E-02 .            *            .            .            .
  1.585E-02  1.000E-02 .            *            .            .            .
  1.995E-02  1.000E-02 .            *            .            .            .
  2.512E-02  1.000E-02 .            *            .            .            .
  3.162E-02  1.000E-02 .            *            .            .            .
  3.981E-02  1.000E-02 .            *            .            .            .
  5.012E-02  1.000E-02 .            *            .            .            .
  6.310E-02  1.000E-02 .            *            .            .            .
  7.943E-02  1.000E-02 .            *            .            .            .
  1.000E-01  1.000E-02 .            *            .            .            .
  1.259E-01  1.000E-02 .            *            .            .            .
  1.585E-01  1.000E-02 .            *            .            .            .
  1.995E-01  1.000E-02 .            *            .            .            .
  2.512E-01  1.000E-02 .            *            .            .            .
  3.162E-01  1.000E-02 .            *            .            .            .
  3.981E-01  1.000E-02 .            *            .            .            .
  5.012E-01  1.000E-02 .            *            .            .            .
  6.310E-01  1.000E-02 .            *            .            .            .
  7.943E-01  1.000E-02 .            *            .            .            .
  1.000E+00  1.000E-02 .            *            .            .            .
  1.259E+00  1.000E-02 .            *            .            .            .
  1.585E+00  1.000E-02 .            *            .            .            .
  1.995E+00  1.000E-02 .            *            .            .            .
  2.512E+00  1.000E-02 .            *            .            .            .
  3.162E+00  1.000E-02 .            *            .            .            .
  3.981E+00  1.000E-02 .            *            .            .            .
  5.012E+00  1.000E-02 .            *            .            .            .
  6.310E+00  1.000E-02 .            *            .            .            .
  7.943E+00  1.000E-02 .            *            .            .            .
  1.000E+01  1.000E-02 .            *            .            .            .
  1.259E+01  1.000E-02 .            *            .            .            .
  1.585E+01  1.000E-02 .            *            .            .            .
  1.995E+01  1.000E-02 .            *            .            .            .
  2.512E+01  1.000E-02 .            *            .            .            .
  3.162E+01  1.000E-02 .            *            .            .            .
  3.981E+01  1.000E-02 .            *            .            .            .
  5.012E+01  1.000E-02 .            *            .            .            .
  6.310E+01  1.000E-02 .            *            .            .            .
  7.943E+01  1.000E-02 .            *            .            .            .
  1.000E+02  1.000E-02 .            *            .            .            .
  1.259E+02  1.000E-02 .            *            .            .            .
  1.585E+02  1.000E-02 .            *            .            .            .
  1.995E+02  1.000E-02 .            *            .            .            .
  2.512E+02  1.000E-02 .            *            .            .            .
  3.162E+02  1.000E-02 .            *            .            .            .
  3.981E+02  1.000E-02 .            *            .            .            .
  5.012E+02  1.000E-02 .            *            .            .            .
  6.310E+02  1.000E-02 .            *            .            .            .
  7.943E+02  1.000E-02 .            *            .            .            .
  1.000E+03  1.000E-02 .            *            .            .            .
  1.259E+03  1.000E-02 .            *            .            .            .
  1.585E+03  1.000E-02 .            *            .            .            .
  1.995E+03  1.000E-02 .            *            .            .            .
  2.512E+03  1.000E-02 .            *            .            .            .
  3.162E+03  1.000E-02 .            *            .            .            .
  3.981E+03  1.000E-02 .            *            .            .            .
  5.012E+03  1.000E-02 .            *            .            .            .
  6.310E+03  1.000E-02 .            *            .            .            .
  7.943E+03  1.000E-02 .            *            .            .            .
  1.000E+04  1.000E-02 .            *            .            .            .
  1.259E+04  1.000E-02 .            *            .            .            .
  1.585E+04  1.000E-02 .            *            .            .            .
  1.995E+04  1.000E-02 .            *            .            .            .
  2.512E+04  1.000E-02 .            *            .            .            .
  3.162E+04  1.000E-02 .            *            .            .            .
  3.981E+04  1.000E-02 .            *            .            .            .
  5.012E+04  1.000E-02 .            *            .            .            .
  6.310E+04  1.000E-02 .            *            .            .            .
  7.943E+04  1.000E-02 .            *            .            .            .
  1.000E+05  1.000E-02 .            *            .            .            .
  1.259E+05  1.000E-02 .            *            .            .            .
  1.585E+05  1.000E-02 .            *            .            .            .
  1.995E+05  1.000E-02 .            *            .            .            .
  2.512E+05  1.000E-02 .            *            .            .            .
  3.162E+05  1.000E-02 .            *            .            .            .
  3.981E+05  1.000E-02 .            *            .            .            .
  5.012E+05  1.000E-02 .            *            .            .            .
  6.310E+05  1.000E-02 .            *            .            .            .
  7.943E+05  1.000E-02 .            *            .            .            .
  1.000E+06  1.000E-02 .            *            .            .            .
                       - - - - - - - - - - - - - - - - - - - - - - - - - - - 




          JOB CONCLUDED

**** 11/09/22 11:33:19 ******* PSpice 17.4.0 (Nov 2018) ******* ID# 0 ********

 ****CSE4030Lab11_pt2****


 ****     JOB STATISTICS SUMMARY


******************************************************************************



  Total job time (using Solver 1)   =         .02
