
**** 10/03/22 11:08:37 ******* PSpice 17.4.0 (Nov 2018) ******* ID# 0 ********

 ++++cse4030Lab6pt1++++++


 ****     CIRCUIT DESCRIPTION


******************************************************************************



Vs 1 0 PWL (0 0 2m 12 6m 0)
C1 1 0 2u
.Tran 1ms 7ms
.PLOT Tran V(1) 
.PROBE
.END 

**** 10/03/22 11:08:37 ******* PSpice 17.4.0 (Nov 2018) ******* ID# 0 ********

 ++++cse4030Lab6pt1++++++


 ****     INITIAL TRANSIENT SOLUTION       TEMPERATURE =   27.000 DEG C


******************************************************************************



 NODE   VOLTAGE     NODE   VOLTAGE     NODE   VOLTAGE     NODE   VOLTAGE


(    1)    0.0000  




    VOLTAGE SOURCE CURRENTS
    NAME         CURRENT

    Vs           0.000E+00

    TOTAL POWER DISSIPATION   0.00E+00  WATTS


**** 10/03/22 11:08:37 ******* PSpice 17.4.0 (Nov 2018) ******* ID# 0 ********

 ++++cse4030Lab6pt1++++++


 ****     TRANSIENT ANALYSIS               TEMPERATURE =   27.000 DEG C


******************************************************************************



  TIME        V(1)        
(*)----------    0.0000E+00   5.0000E+00   1.0000E+01   1.5000E+01   2.0000E+01
                       _ _ _ _ _ _ _ _ _ _ _ _ _ _ _ _ _ _ _ _ _ _ _ _ _ _ _
  0.000E+00  0.000E+00 *            .            .            .            .
  1.000E-03  6.000E+00 .            .  *         .            .            .
  2.000E-03  1.200E+01 .            .            .    *       .            .
  3.000E-03  9.000E+00 .            .         *  .            .            .
  4.000E-03  6.000E+00 .            .  *         .            .            .
  5.000E-03  3.000E+00 .       *    .            .            .            .
  6.000E-03  1.565E-07 *            .            .            .            .
  7.000E-03  0.000E+00 *            .            .            .            .
                       - - - - - - - - - - - - - - - - - - - - - - - - - - - 




          JOB CONCLUDED

**** 10/03/22 11:08:37 ******* PSpice 17.4.0 (Nov 2018) ******* ID# 0 ********

 ++++cse4030Lab6pt1++++++


 ****     JOB STATISTICS SUMMARY


******************************************************************************



  License check-out time            =         .80
  Total job time (using Solver 1)   =         .02
