
**** 10/26/22 11:03:38 ******* PSpice 17.4.0 (Nov 2018) ******* ID# 0 ********

 ****CSE4030Lab9_pt2****


 ****     CIRCUIT DESCRIPTION


******************************************************************************




Vs 1 0  SIN( 0 24 60 0 0 150 )
R1 1 2 4
R2 2 3 8
L 2 0 .0159H
C 3 0 .663mF   


.TRAN 1ms 60ms
.PLOT TRAN V(1)
.PROBE
.END

**** 10/26/22 11:03:38 ******* PSpice 17.4.0 (Nov 2018) ******* ID# 0 ********

 ****CSE4030Lab9_pt2****


 ****     INITIAL TRANSIENT SOLUTION       TEMPERATURE =   27.000 DEG C


******************************************************************************



 NODE   VOLTAGE     NODE   VOLTAGE     NODE   VOLTAGE     NODE   VOLTAGE


(    1)   12.0000  (    2)    0.0000  (    3)    0.0000  




    VOLTAGE SOURCE CURRENTS
    NAME         CURRENT

    Vs          -3.000E+00

    TOTAL POWER DISSIPATION   3.60E+01  WATTS


**** 10/26/22 11:03:38 ******* PSpice 17.4.0 (Nov 2018) ******* ID# 0 ********

 ****CSE4030Lab9_pt2****


 ****     TRANSIENT ANALYSIS               TEMPERATURE =   27.000 DEG C


******************************************************************************



  TIME        V(1)        
(*)----------   -4.0000E+01  -2.0000E+01   0.0000E+00   2.0000E+01   4.0000E+01
                       _ _ _ _ _ _ _ _ _ _ _ _ _ _ _ _ _ _ _ _ _ _ _ _ _ _ _
  0.000E+00  1.200E+01 .            .            .       *    .            .
  1.000E-03  3.499E+00 .            .            . *          .            .
  2.000E-03 -5.466E+00 .            .        *   .            .            .
  3.000E-03 -1.348E+01 .            .   *        .            .            .
  4.000E-03 -1.951E+01 .            *            .            .            .
  5.000E-03 -2.289E+01 .          * .            .            .            .
  6.000E-03 -2.320E+01 .          * .            .            .            .
  7.000E-03 -2.035E+01 .            *            .            .            .
  8.000E-03 -1.441E+01 .            .   *        .            .            .
  9.000E-03 -6.304E+00 .            .        *   .            .            .
  1.000E-02  2.466E+00 .            .            . *          .            .
  1.100E-02  1.083E+01 .            .            .      *     .            .
  1.200E-02  1.778E+01 .            .            .           *.            .
  1.300E-02  2.244E+01 .            .            .            . *          .
  1.400E-02  2.383E+01 .            .            .            . *          .
  1.500E-02  2.152E+01 .            .            .            .*           .
  1.600E-02  1.637E+01 .            .            .          * .            .
  1.700E-02  9.078E+00 .            .            .     *      .            .
  1.800E-02  5.260E-01 .            .            *            .            .
  1.900E-02 -8.263E+00 .            .       *    .            .            .
  2.000E-02 -1.598E+01 .            .  *         .            .            .
  2.100E-02 -2.113E+01 .           *.            .            .            .
  2.200E-02 -2.333E+01 .          * .            .            .            .
  2.300E-02 -2.240E+01 .          * .            .            .            .
  2.400E-02 -1.845E+01 .            .*           .            .            .
  2.500E-02 -1.191E+01 .            .    *       .            .            .
  2.600E-02 -3.466E+00 .            .          * .            .            .
  2.700E-02  5.416E+00 .            .            .   *        .            .
  2.800E-02  1.338E+01 .            .            .        *   .            .
  2.900E-02  1.948E+01 .            .            .            *            .
  3.000E-02  2.300E+01 .            .            .            . *          .
  3.100E-02  2.345E+01 .            .            .            . *          .
  3.200E-02  2.040E+01 .            .            .            *            .
  3.300E-02  1.422E+01 .            .            .        *   .            .
  3.400E-02  6.279E+00 .            .            .   *        .            .
  3.500E-02 -2.434E+00 .            .          * .            .            .
  3.600E-02 -1.087E+01 .            .     *      .            .            .
  3.700E-02 -1.798E+01 .            .*           .            .            .
  3.800E-02 -2.253E+01 .          * .            .            .            .
  3.900E-02 -2.355E+01 .          * .            .            .            .
  4.000E-02 -2.138E+01 .           *.            .            .            .
  4.100E-02 -1.638E+01 .            . *          .            .            .
  4.200E-02 -9.145E+00 .            .      *     .            .            .
  4.300E-02 -5.248E-01 .            .            *            .            .
  4.400E-02  8.333E+00 .            .            .    *       .            .
  4.500E-02  1.580E+01 .            .            .         *  .            .
  4.600E-02  2.098E+01 .            .            .            .*           .
  4.700E-02  2.332E+01 .            .            .            . *          .
  4.800E-02  2.253E+01 .            .            .            . *          .
  4.900E-02  1.865E+01 .            .            .           *.            .
  5.000E-02  1.191E+01 .            .            .       *    .            .
  5.100E-02  3.408E+00 .            .            . *          .            .
  5.200E-02 -5.364E+00 .            .         *  .            .            .
  5.300E-02 -1.334E+01 .            .   *        .            .            .
  5.400E-02 -1.957E+01 .            *            .            .            .
  5.500E-02 -2.325E+01 .          * .            .            .            .
  5.600E-02 -2.352E+01 .          * .            .            .            .
  5.700E-02 -2.014E+01 .            *            .            .            .
  5.800E-02 -1.414E+01 .            .   *        .            .            .
  5.900E-02 -6.304E+00 .            .        *   .            .            .
  6.000E-02  2.509E+00 .            .            . *          .            .
                       - - - - - - - - - - - - - - - - - - - - - - - - - - - 




          JOB CONCLUDED

**** 10/26/22 11:03:38 ******* PSpice 17.4.0 (Nov 2018) ******* ID# 0 ********

 ****CSE4030Lab9_pt2****


 ****     JOB STATISTICS SUMMARY


******************************************************************************



  Total job time (using Solver 1)   =         .02

**** 10/26/22 11:03:38 ******* PSpice 17.4.0 (Nov 2018) ******* ID# 0 ********

  


 ****     CIRCUIT DESCRIPTION


******************************************************************************




