
**** 11/21/22 10:59:39 ******* PSpice 17.4.0 (Nov 2018) ******* ID# 0 ********

 ****CSE4030Lab13_pt1****


 ****     CIRCUIT DESCRIPTION


******************************************************************************




Vi 1 0 PWL(0 0 0.1m 1V )
R1 1 2 1
R2 2 0 1
L1 2 3  1
C1 3 0  4

.TRAN 1s 100s
.PLOT TRAN V(1)
.PROBE
.END

**** 11/21/22 10:59:39 ******* PSpice 17.4.0 (Nov 2018) ******* ID# 0 ********

 ****CSE4030Lab13_pt1****


 ****     INITIAL TRANSIENT SOLUTION       TEMPERATURE =   27.000 DEG C


******************************************************************************



 NODE   VOLTAGE     NODE   VOLTAGE     NODE   VOLTAGE     NODE   VOLTAGE


(    1)    0.0000  (    2)    0.0000  (    3)    0.0000  




    VOLTAGE SOURCE CURRENTS
    NAME         CURRENT

    Vi           0.000E+00

    TOTAL POWER DISSIPATION   0.00E+00  WATTS


**** 11/21/22 10:59:39 ******* PSpice 17.4.0 (Nov 2018) ******* ID# 0 ********

 ****CSE4030Lab13_pt1****


 ****     TRANSIENT ANALYSIS               TEMPERATURE =   27.000 DEG C


******************************************************************************



  TIME        V(1)        
(*)----------   -5.0000E-01   0.0000E+00   5.0000E-01   1.0000E+00   1.5000E+00
                       _ _ _ _ _ _ _ _ _ _ _ _ _ _ _ _ _ _ _ _ _ _ _ _ _ _ _
  0.000E+00  0.000E+00 .            *            .            .            .
  1.000E+00  1.000E+00 .            .            .            *            .
  2.000E+00  1.000E+00 .            .            .            *            .
  3.000E+00  1.000E+00 .            .            .            *            .
  4.000E+00  1.000E+00 .            .            .            *            .
  5.000E+00  1.000E+00 .            .            .            *            .
  6.000E+00  1.000E+00 .            .            .            *            .
  7.000E+00  1.000E+00 .            .            .            *            .
  8.000E+00  1.000E+00 .            .            .            *            .
  9.000E+00  1.000E+00 .            .            .            *            .
  1.000E+01  1.000E+00 .            .            .            *            .
  1.100E+01  1.000E+00 .            .            .            *            .
  1.200E+01  1.000E+00 .            .            .            *            .
  1.300E+01  1.000E+00 .            .            .            *            .
  1.400E+01  1.000E+00 .            .            .            *            .
  1.500E+01  1.000E+00 .            .            .            *            .
  1.600E+01  1.000E+00 .            .            .            *            .
  1.700E+01  1.000E+00 .            .            .            *            .
  1.800E+01  1.000E+00 .            .            .            *            .
  1.900E+01  1.000E+00 .            .            .            *            .
  2.000E+01  1.000E+00 .            .            .            *            .
  2.100E+01  1.000E+00 .            .            .            *            .
  2.200E+01  1.000E+00 .            .            .            *            .
  2.300E+01  1.000E+00 .            .            .            *            .
  2.400E+01  1.000E+00 .            .            .            *            .
  2.500E+01  1.000E+00 .            .            .            *            .
  2.600E+01  1.000E+00 .            .            .            *            .
  2.700E+01  1.000E+00 .            .            .            *            .
  2.800E+01  1.000E+00 .            .            .            *            .
  2.900E+01  1.000E+00 .            .            .            *            .
  3.000E+01  1.000E+00 .            .            .            *            .
  3.100E+01  1.000E+00 .            .            .            *            .
  3.200E+01  1.000E+00 .            .            .            *            .
  3.300E+01  1.000E+00 .            .            .            *            .
  3.400E+01  1.000E+00 .            .            .            *            .
  3.500E+01  1.000E+00 .            .            .            *            .
  3.600E+01  1.000E+00 .            .            .            *            .
  3.700E+01  1.000E+00 .            .            .            *            .
  3.800E+01  1.000E+00 .            .            .            *            .
  3.900E+01  1.000E+00 .            .            .            *            .
  4.000E+01  1.000E+00 .            .            .            *            .
  4.100E+01  1.000E+00 .            .            .            *            .
  4.200E+01  1.000E+00 .            .            .            *            .
  4.300E+01  1.000E+00 .            .            .            *            .
  4.400E+01  1.000E+00 .            .            .            *            .
  4.500E+01  1.000E+00 .            .            .            *            .
  4.600E+01  1.000E+00 .            .            .            *            .
  4.700E+01  1.000E+00 .            .            .            *            .
  4.800E+01  1.000E+00 .            .            .            *            .
  4.900E+01  1.000E+00 .            .            .            *            .
  5.000E+01  1.000E+00 .            .            .            *            .
  5.100E+01  1.000E+00 .            .            .            *            .
  5.200E+01  1.000E+00 .            .            .            *            .
  5.300E+01  1.000E+00 .            .            .            *            .
  5.400E+01  1.000E+00 .            .            .            *            .
  5.500E+01  1.000E+00 .            .            .            *            .
  5.600E+01  1.000E+00 .            .            .            *            .
  5.700E+01  1.000E+00 .            .            .            *            .
  5.800E+01  1.000E+00 .            .            .            *            .
  5.900E+01  1.000E+00 .            .            .            *            .
  6.000E+01  1.000E+00 .            .            .            *            .
  6.100E+01  1.000E+00 .            .            .            *            .
  6.200E+01  1.000E+00 .            .            .            *            .
  6.300E+01  1.000E+00 .            .            .            *            .
  6.400E+01  1.000E+00 .            .            .            *            .
  6.500E+01  1.000E+00 .            .            .            *            .
  6.600E+01  1.000E+00 .            .            .            *            .
  6.700E+01  1.000E+00 .            .            .            *            .
  6.800E+01  1.000E+00 .            .            .            *            .
  6.900E+01  1.000E+00 .            .            .            *            .
  7.000E+01  1.000E+00 .            .            .            *            .
  7.100E+01  1.000E+00 .            .            .            *            .
  7.200E+01  1.000E+00 .            .            .            *            .
  7.300E+01  1.000E+00 .            .            .            *            .
  7.400E+01  1.000E+00 .            .            .            *            .
  7.500E+01  1.000E+00 .            .            .            *            .
  7.600E+01  1.000E+00 .            .            .            *            .
  7.700E+01  1.000E+00 .            .            .            *            .
  7.800E+01  1.000E+00 .            .            .            *            .
  7.900E+01  1.000E+00 .            .            .            *            .
  8.000E+01  1.000E+00 .            .            .            *            .
  8.100E+01  1.000E+00 .            .            .            *            .
  8.200E+01  1.000E+00 .            .            .            *            .
  8.300E+01  1.000E+00 .            .            .            *            .
  8.400E+01  1.000E+00 .            .            .            *            .
  8.500E+01  1.000E+00 .            .            .            *            .
  8.600E+01  1.000E+00 .            .            .            *            .
  8.700E+01  1.000E+00 .            .            .            *            .
  8.800E+01  1.000E+00 .            .            .            *            .
  8.900E+01  1.000E+00 .            .            .            *            .
  9.000E+01  1.000E+00 .            .            .            *            .
  9.100E+01  1.000E+00 .            .            .            *            .
  9.200E+01  1.000E+00 .            .            .            *            .
  9.300E+01  1.000E+00 .            .            .            *            .
  9.400E+01  1.000E+00 .            .            .            *            .
  9.500E+01  1.000E+00 .            .            .            *            .
  9.600E+01  1.000E+00 .            .            .            *            .
  9.700E+01  1.000E+00 .            .            .            *            .
  9.800E+01  1.000E+00 .            .            .            *            .
  9.900E+01  1.000E+00 .            .            .            *            .
  1.000E+02  1.000E+00 .            .            .            *            .
                       - - - - - - - - - - - - - - - - - - - - - - - - - - - 




          JOB CONCLUDED

**** 11/21/22 10:59:39 ******* PSpice 17.4.0 (Nov 2018) ******* ID# 0 ********

 ****CSE4030Lab13_pt1****


 ****     JOB STATISTICS SUMMARY


******************************************************************************



  Total job time (using Solver 1)   =         .02
