
**** 10/10/22 11:43:59 ******* PSpice 17.4.0 (Nov 2018) ******* ID# 0 ********

 ****CSE4010Lab7pt1****


 ****     CIRCUIT DESCRIPTION


******************************************************************************





Is 0 1 PWL( 0 0  1m 20 2m 10 3m 10 4m 0 )
L 1 0 5mH

.Tran 1ms 7ms
.PLOT Tran V(1)
.PROBE
.END

**** 10/10/22 11:43:59 ******* PSpice 17.4.0 (Nov 2018) ******* ID# 0 ********

 ****CSE4010Lab7pt1****


 ****     INITIAL TRANSIENT SOLUTION       TEMPERATURE =   27.000 DEG C


******************************************************************************



 NODE   VOLTAGE     NODE   VOLTAGE     NODE   VOLTAGE     NODE   VOLTAGE


(    1)    0.0000  




    VOLTAGE SOURCE CURRENTS
    NAME         CURRENT


    TOTAL POWER DISSIPATION   0.00E+00  WATTS


**** 10/10/22 11:43:59 ******* PSpice 17.4.0 (Nov 2018) ******* ID# 0 ********

 ****CSE4010Lab7pt1****


 ****     TRANSIENT ANALYSIS               TEMPERATURE =   27.000 DEG C


******************************************************************************



  TIME        V(1)        
(*)----------   -1.0000E+02  -5.0000E+01   9.9476E-14   5.0000E+01   1.0000E+02
                       _ _ _ _ _ _ _ _ _ _ _ _ _ _ _ _ _ _ _ _ _ _ _ _ _ _ _
  0.000E+00  0.000E+00 .            .            *            .            .
  1.000E-03  1.000E+02 .            .            .            .            *
  2.000E-03 -5.000E+01 .            *            .            .            .
  3.000E-03  1.786E-08 .            .            *            .            .
  4.000E-03 -5.000E+01 .            *            .            .            .
  5.000E-03 -4.360E-08 .            .            *            .            .
  6.000E-03  1.104E-07 .            .            *            .            .
  7.000E-03 -2.329E-07 .            .            *            .            .
                       - - - - - - - - - - - - - - - - - - - - - - - - - - - 




          JOB CONCLUDED

**** 10/10/22 11:43:59 ******* PSpice 17.4.0 (Nov 2018) ******* ID# 0 ********

 ****CSE4010Lab7pt1****


 ****     JOB STATISTICS SUMMARY


******************************************************************************



  License check-out time            =         .69
  Total job time (using Solver 1)   =        0.00
