
**** 10/31/22 10:47:05 ******* PSpice 17.4.0 (Nov 2018) ******* ID# 0 ********

 ****CSE4030Lab9****


 ****     CIRCUIT DESCRIPTION


******************************************************************************




Vs 1 0 SIN(0 14.14 60 0 0 60) 
R1 1 2 2
L  2 0 2 

.Tran 2ms 10ms
.PLOT Tran V(1)
.PROBE
.END

**** 10/31/22 10:47:05 ******* PSpice 17.4.0 (Nov 2018) ******* ID# 0 ********

 ****CSE4030Lab9****


 ****     INITIAL TRANSIENT SOLUTION       TEMPERATURE =   27.000 DEG C


******************************************************************************



 NODE   VOLTAGE     NODE   VOLTAGE     NODE   VOLTAGE     NODE   VOLTAGE


(    1)   12.2460  (    2)    0.0000  




    VOLTAGE SOURCE CURRENTS
    NAME         CURRENT

    Vs          -6.123E+00

    TOTAL POWER DISSIPATION   7.50E+01  WATTS


**** 10/31/22 10:47:05 ******* PSpice 17.4.0 (Nov 2018) ******* ID# 0 ********

 ****CSE4030Lab9****


 ****     TRANSIENT ANALYSIS               TEMPERATURE =   27.000 DEG C


******************************************************************************



  TIME        V(1)        
(*)----------   -2.0000E+01  -1.0000E+01   0.0000E+00   1.0000E+01   2.0000E+01
                       _ _ _ _ _ _ _ _ _ _ _ _ _ _ _ _ _ _ _ _ _ _ _ _ _ _ _
  0.000E+00  1.225E+01 .            .            .            .  *         .
  2.000E-03  1.376E+01 .            .            .            .    *       .
  4.000E-03  7.820E+00 .            .            .         *  .            .
  6.000E-03 -2.357E+00 .            .         *  .            .            .
  8.000E-03 -1.126E+01 .          * .            .            .            .
  1.000E-02 -1.406E+01 .       *    .            .            .            .
                       - - - - - - - - - - - - - - - - - - - - - - - - - - - 




          JOB CONCLUDED

**** 10/31/22 10:47:05 ******* PSpice 17.4.0 (Nov 2018) ******* ID# 0 ********

 ****CSE4030Lab9****


 ****     JOB STATISTICS SUMMARY


******************************************************************************



  Total job time (using Solver 1)   =         .02

**** 10/31/22 10:47:05 ******* PSpice 17.4.0 (Nov 2018) ******* ID# 0 ********

  


 ****     CIRCUIT DESCRIPTION


******************************************************************************



