
**** 10/24/22 10:46:29 ******* PSpice 17.4.0 (Nov 2018) ******* ID# 0 ********

 ****CSE4030Lab9*****


 ****     CIRCUIT DESCRIPTION


******************************************************************************




Vs 1 0 SIN( 0 14.14 60 0 0 0 )
 R1 1 2 2
 L1 2 0 5.3mH
 
 
 .TRAN 1ms 50ms
 .PLOT TRAN V(1)
 .PROBE 
.END

**** 10/24/22 10:46:29 ******* PSpice 17.4.0 (Nov 2018) ******* ID# 0 ********

 ****CSE4030Lab9*****


 ****     INITIAL TRANSIENT SOLUTION       TEMPERATURE =   27.000 DEG C


******************************************************************************



 NODE   VOLTAGE     NODE   VOLTAGE     NODE   VOLTAGE     NODE   VOLTAGE


(    1)    0.0000  (    2)    0.0000  




    VOLTAGE SOURCE CURRENTS
    NAME         CURRENT

    Vs           0.000E+00

    TOTAL POWER DISSIPATION   0.00E+00  WATTS


**** 10/24/22 10:46:29 ******* PSpice 17.4.0 (Nov 2018) ******* ID# 0 ********

 ****CSE4030Lab9*****


 ****     TRANSIENT ANALYSIS               TEMPERATURE =   27.000 DEG C


******************************************************************************



  TIME        V(1)        
(*)----------   -2.0000E+01  -1.0000E+01   0.0000E+00   1.0000E+01   2.0000E+01
                       _ _ _ _ _ _ _ _ _ _ _ _ _ _ _ _ _ _ _ _ _ _ _ _ _ _ _
  0.000E+00  0.000E+00 .            .            *            .            .
  1.000E-03  5.164E+00 .            .            .      *     .            .
  2.000E-03  9.537E+00 .            .            .           *.            .
  3.000E-03  1.261E+01 .            .            .            .  *         .
  4.000E-03  1.392E+01 .            .            .            .    *       .
  5.000E-03  1.327E+01 .            .            .            .   *        .
  6.000E-03  1.075E+01 .            .            .            .*           .
  7.000E-03  6.728E+00 .            .            .        *   .            .
  8.000E-03  1.759E+00 .            .            . *          .            .
  9.000E-03 -3.457E+00 .            .        *   .            .            .
  1.000E-02 -8.187E+00 .            . *          .            .            .
  1.100E-02 -1.177E+01 .          * .            .            .            .
  1.200E-02 -1.370E+01 .       *    .            .            .            .
  1.300E-02 -1.370E+01 .       *    .            .            .            .
  1.400E-02 -1.178E+01 .          * .            .            .            .
  1.500E-02 -8.206E+00 .            . *          .            .            .
  1.600E-02 -3.479E+00 .            .       *    .            .            .
  1.700E-02  1.736E+00 .            .            . *          .            .
  1.800E-02  6.708E+00 .            .            .        *   .            .
  1.900E-02  1.074E+01 .            .            .            .*           .
  2.000E-02  1.326E+01 .            .            .            .   *        .
  2.100E-02  1.392E+01 .            .            .            .    *       .
  2.200E-02  1.262E+01 .            .            .            .  *         .
  2.300E-02  9.554E+00 .            .            .           *.            .
  2.400E-02  5.144E+00 .            .            .      *     .            .
  2.500E-02  1.148E-02 .            .            *            .            .
  2.600E-02 -5.123E+00 .            .     *      .            .            .
  2.700E-02 -9.537E+00 .            .*           .            .            .
  2.800E-02 -1.261E+01 .         *  .            .            .            .
  2.900E-02 -1.392E+01 .       *    .            .            .            .
  3.000E-02 -1.327E+01 .        *   .            .            .            .
  3.100E-02 -1.075E+01 .           *.            .            .            .
  3.200E-02 -6.728E+00 .            .   *        .            .            .
  3.300E-02 -1.759E+00 .            .          * .            .            .
  3.400E-02  3.457E+00 .            .            .   *        .            .
  3.500E-02  8.187E+00 .            .            .          * .            .
  3.600E-02  1.177E+01 .            .            .            . *          .
  3.700E-02  1.370E+01 .            .            .            .    *       .
  3.800E-02  1.370E+01 .            .            .            .    *       .
  3.900E-02  1.178E+01 .            .            .            . *          .
  4.000E-02  8.206E+00 .            .            .          * .            .
  4.100E-02  3.479E+00 .            .            .    *       .            .
  4.200E-02 -1.736E+00 .            .          * .            .            .
  4.300E-02 -6.708E+00 .            .   *        .            .            .
  4.400E-02 -1.074E+01 .           *.            .            .            .
  4.500E-02 -1.326E+01 .        *   .            .            .            .
  4.600E-02 -1.392E+01 .       *    .            .            .            .
  4.700E-02 -1.262E+01 .         *  .            .            .            .
  4.800E-02 -9.554E+00 .            .*           .            .            .
  4.900E-02 -5.144E+00 .            .     *      .            .            .
  5.000E-02 -3.965E-06 .            .            *            .            .
                       - - - - - - - - - - - - - - - - - - - - - - - - - - - 




          JOB CONCLUDED

**** 10/24/22 10:46:29 ******* PSpice 17.4.0 (Nov 2018) ******* ID# 0 ********

 ****CSE4030Lab9*****


 ****     JOB STATISTICS SUMMARY


******************************************************************************



  License check-out time            =         .66
  Total job time (using Solver 1)   =         .05
