
**** 01/25/23 16:21:39 ******* PSpice 17.4.0 (Nov 2018) ******* ID# 0 ********

 ++ LAB 1 ++


 ****     CIRCUIT DESCRIPTION


******************************************************************************



V5 109
------$
ERROR -- Missing node
R1 126
------$
ERROR -- Missing node
R2 203
------$
ERROR -- Missing node
.TRAN 1m 5ms
.PLOT TRAN V(1)
.PROBE
.END
