
**** 01/23/23 17:54:40 ******* PSpice 17.4.0 (Nov 2018) ******* ID# 0 ********

 ******************Lab1_1**************************


 ****     CIRCUIT DESCRIPTION


******************************************************************************



Vs 1 0 9
R1 1 2 60k
R2 2 0 30k

Tran 1m 5ms 
------------$
ERROR -- Missing node
PLOT Tran V(1)
$
ERROR(ORPSIM-16316): Invalid device
PROBE 
$
ERROR(ORPSIM-16316): Invalid device
.END

**** 01/23/23 17:54:40 ******* PSpice 17.4.0 (Nov 2018) ******* ID# 0 ********

  


 ****     CIRCUIT DESCRIPTION


******************************************************************************



