
**** 08/31/22 11:37:47 ******* PSpice 17.4.0 (Nov 2018) ******* ID# 0 ********

 *****test*****


 ****     CIRCUIT DESCRIPTION


******************************************************************************



Vs 1 0 DC 0.9mA
R1 1 2 60K
R2 2 0 40K
R3 20 80k

---------$
ERROR(ORPSIM-16407): Missing model
.Tran 1ms 5ms
.PLOT TRAN V(1) V(2)
.PROBE
.END
